
     RDKit          3D

  9  8  0  0  0  0  0  0  0  0999 V2000
   -1.1146   -0.2342   -0.0833 C   0  0  0  0  0  0  0  0  0  0  0  0
    0.1748    0.2711    0.4765 C   0  0  0  0  0  0  0  0  0  0  0  0
    0.1864    0.8777    1.5806 O   0  0  0  0  0  0  0  0  0  0  0  0
    1.3901    0.0993   -0.2511 N   0  0  0  0  0  0  0  0  0  0  0  0
   -1.9081   -0.2216    0.6940 H   0  0  0  0  0  0  0  0  0  0  0  0
   -0.9845   -1.2760   -0.4438 H   0  0  0  0  0  0  0  0  0  0  0  0
   -1.4269    0.4098   -0.9314 H   0  0  0  0  0  0  0  0  0  0  0  0
    1.3919   -0.3870   -1.1751 H   0  0  0  0  0  0  0  0  0  0  0  0
    2.2909    0.4609    0.1336 H   0  0  0  0  0  0  0  0  0  0  0  0
  1  2  1  0
  2  3  2  0
  2  4  1  0
  1  5  1  0
  1  6  1  0
  1  7  1  0
  4  8  1  0
  4  9  1  0
M  END
$$$$
